data/casedata/data_init/aus-data/AU14GenModelData_Ver04/LF_Case05_R4_Report.txt
1                                    PTI INTERACTIVE POWER SYSTEM SIMULATOR--PSS®E      MON, FEB 17 2014  18:49
                         LF_CASE05_R3_S  14 GEN, SIMPLIFIED MODEL OF 4-STATE SYSTEM       %MVA FOR TRANSFORMERS
                         MEDLD+PUMP AREA4->AREA2<-AREA3->AREA5 300-200-250                % I  FOR NON-TRANSFORMER BRANCHES

 X------- FROM BUS ------X AREA  VOLT            GEN    LOAD    SHUNT  X---------- TO BUS ----------X                        TRANSFORMER     RATING
   BUS# X-- NAME --X BASKV ZONE  PU/KV  ANGLE  MW/MVAR MW/MVAR MW/MVAR   BUS# X-- NAME --X BASKV AREA CKT    MW     MVAR    RATIO   ANGLE   %  SET A

    101 1_HPSGEN    15.000    1 1.0000  -34.8  -600.0      0.0     0.0 -----------------------------------------------------------------------------
                              1 15.000          -78.0R     0.0     0.0    102 1_HPS330    330.00    1  1   -600.0   -78.0  1.000LK

    102 1_HPS330    330.00    1 1.0119  -30.8     0.0    340.0     0.0 -----------------------------------------------------------------------------
                              1 333.93            0.0     35.0     0.0    101 1_HPSGEN    15.000    1  1    600.0   121.9  1.000UN
                                                                          217 2_YC_330    330.00    2  1   -178.2    -9.1
                                                                          217 2_YC_330    330.00    2  2   -178.2    -9.1
                                                                          217 2_YC_330    330.00    2  3   -191.7    -3.8
                                                                          217 2_YC_330    330.00    2  4   -191.7    -3.8
                                                                          309 3_D__330    330.00    3  1    -83.1   -42.1
                                                                          309 3_D__330    330.00    3  2    -83.1   -42.1
                                                                          309 3_D__330    330.00    3  3    -34.1   -47.0
    201 2_BPSGEN    20.000    2 1.0000    6.6  2800.0      0.0     0.0 -----------------------------------------------------------------------------
                              1 20.000          193.4R     0.0     0.0    206 2_BPS330    330.00    2  1   2800.0   193.4  0.971LK

    202 2_EPSGEN    20.000    2 1.0000   -1.6  1920.0      0.0     0.0 -----------------------------------------------------------------------------
                              1 20.000          268.9R     0.0     0.0    209 2_EPS330    330.00    2  1   1920.0   268.9  0.971LK

    203 2_VPSGEN    20.000    2 1.0000   -5.2   920.0      0.0     0.0 -----------------------------------------------------------------------------
                              1 20.000          166.1R     0.0     0.0    208 2_VPS330    330.00    2  1    920.0   166.1  0.971LK

    204 2_MPSGEN    20.000    2 1.0000    0.0  2137.6      0.0     0.0 -----------------------------------------------------------------------------
                              1 20.000          221.0R     0.0     0.0    215 2_MPS330    330.00    2  1   2137.6   221.0  0.971LK

    205 2_ASV330    330.00    2 1.0450   -0.1     0.0    290.0     0.0 -----------------------------------------------------------------------------
                              1 344.85         -118.3R    30.0     0.0    206 2_BPS330    330.00    2  1     14.8   -31.0
                                                                          206 2_BPS330    330.00    2  2     14.8   -31.0
                                                                          416 4_DU_330    330.00    4  1   -159.8   -43.1
                                                                          416 4_DU_330    330.00    4  2   -159.8   -43.1
    206 2_BPS330    330.00    2 1.0293   -0.6     0.0    100.0     0.0 -----------------------------------------------------------------------------
                              1 339.66            0.0     10.0     0.0    201 2_BPSGEN    20.000    2  1  -2800.0   163.0  1.000UN
                                                                          205 2_ASV330    330.00    2  1    -14.8   -68.7
                                                                          205 2_ASV330    330.00    2  2    -14.8   -68.7
                                                                          207 2_N__330    330.00    2  1    554.2    18.1
                                                                          207 2_N__330    330.00    2  2    554.2    18.1
                                                                          212 2_SW_330    330.00    2  1    590.6     4.8
                                                                          212 2_SW_330    330.00    2  2    590.6     4.8
                                                                          215 2_MPS330    330.00    2  1    220.0   -40.6
                                                                          215 2_MPS330    330.00    2  2    220.0   -40.6
    207 2_N__330    330.00    2 1.0088  -11.5     0.0   1410.0     0.0 -----------------------------------------------------------------------------
                              1 332.91            0.0    145.0     0.0    206 2_BPS330    330.00    2  1   -541.1    40.3
                                                                          206 2_BPS330    330.00    2  2   -541.1    40.3
                                                                          208 2_VPS330    330.00    2  1    178.4   -70.6
                                                                          208 2_VPS330    330.00    2  2    178.4   -70.6
                                                                          209 2_EPS330    330.00    2  1   -684.7   -84.6
    208 2_VPS330    330.00    2 1.0145  -13.0     0.0    160.0     0.0 -----------------------------------------------------------------------------
                              1 334.80            0.0     20.0     0.0    203 2_VPSGEN    20.000    2  1   -920.0   -40.1  1.000UN
                                                                          207 2_N__330    330.00    2  1   -177.8    58.0
                                                                          207 2_N__330    330.00    2  2   -177.8    58.0
                                                                          211 2_SN_330    330.00    2  1    371.9   -31.9
                                                                          211 2_SN_330    330.00    2  2    371.9   -31.9
                                                                          211 2_SN_330    330.00    2  3    371.9   -31.9
    209 2_EPS330    330.00    2 1.0200   -9.2     0.0      0.0     0.0 -----------------------------------------------------------------------------
                              1 336.61            0.0      0.0     0.0    202 2_EPSGEN    20.000    2  1  -1920.0   -13.8  1.000UN
                                                                          207 2_N__330    330.00    2  1    688.5   105.7
                                                                          210 2_EPS500    500.00    2  1    198.9   -14.2  0.976LK
                                                                          210 2_EPS500    500.00    2  2    198.9   -14.2  0.976LK
                                                                          210 2_EPS500    500.00    2  3    198.9   -14.2  0.976LK
                                                                          210 2_EPS500    500.00    2  4    198.9   -14.2  0.976LK
                                                                          212 2_SW_330    330.00    2  1    435.8   -35.1
    210 2_EPS500    500.00    2 1.0505  -12.0     0.0      0.0     0.0 -----------------------------------------------------------------------------
                              1 525.26            0.0      0.0     0.0    209 2_EPS330    330.00    2  1   -198.9    24.1  1.000UN
                                                                          209 2_EPS330    330.00    2  2   -198.9    24.1  1.000UN
                                                                          209 2_EPS330    330.00    2  3   -198.9    24.1  1.000UN
                                                                          209 2_EPS330    330.00    2  4   -198.9    24.1  1.000UN
                                                                          213 2_K__500    500.00    2  1    397.8   -48.2
                                                                          213 2_K__500    500.00    2  2    397.8   -48.2
    211 2_SN_330    330.00    2 1.0113  -18.1     0.0   1275.0     0.0 -----------------------------------------------------------------------------
                              1 333.73            0.0    130.0     0.0    208 2_VPS330    330.00    2  1   -367.7    34.1
                                                                          208 2_VPS330    330.00    2  2   -367.7    34.1
                                                                          208 2_VPS330    330.00    2  3   -367.7    34.1
                                                                          212 2_SW_330    330.00    2  1    -61.8   -48.8
                                                                          212 2_SW_330    330.00    2  2    -61.8   -48.8
                                                                          214 2_K__330    330.00    2  1    -48.3  -134.9
    212 2_SW_330    330.00    2 1.0167  -17.8     0.0   1245.0     0.0 -----------------------------------------------------------------------------
                              1 335.50            0.0    125.0  -413.4    206 2_BPS330    330.00    2  1   -568.8   101.9
                                                                          206 2_BPS330    330.00    2  2   -568.8   101.9
                                                                          209 2_EPS330    330.00    2  1   -427.6    54.8
                                                                          211 2_SN_330    330.00    2  1     61.9    35.7
                                                                          211 2_SN_330    330.00    2  2     61.9    35.7
                                                                          217 2_YC_330    330.00    2  1    196.4   -41.5
    213 2_K__500    500.00    2 1.0431  -15.0     0.0      0.0     0.0 -----------------------------------------------------------------------------
                              1 521.55            0.0      0.0     0.0    210 2_EPS500    500.00    2  1   -396.4   -99.6
                                                                          210 2_EPS500    500.00    2  2   -396.4   -99.6
                                                                          214 2_K__330    330.00    2  1    198.2    49.8  1.000LK
                                                                          214 2_K__330    330.00    2  2    198.2    49.8  1.000LK
                                                                          214 2_K__330    330.00    2  3    198.2    49.8  1.000LK
                                                                          214 2_K__330    330.00    2  4    198.2    49.8  1.000LK
    214 2_K__330    330.00    2 1.0314  -17.9     0.0      0.0     0.0 -----------------------------------------------------------------------------
                              1 340.36            0.0      0.0     0.0    211 2_SN_330    330.00    2  1     48.6   117.8
                                                                          213 2_K__500    500.00    2  1   -198.2   -39.3  1.000UN
                                                                          213 2_K__500    500.00    2  2   -198.2   -39.3  1.000UN
                                                                          213 2_K__500    500.00    2  3   -198.2   -39.3  1.000UN
                                                                          213 2_K__500    500.00    2  4   -198.2   -39.3  1.000UN
                                                                          216 2_SS_330    330.00    2  1    455.5    35.4
                                                                          217 2_YC_330    330.00    2  1    288.7     4.2
    215 2_MPS330    330.00    2 1.0247   -7.0     0.0    360.0     0.0 -----------------------------------------------------------------------------
                              1 338.15            0.0     40.0     0.0    204 2_MPSGEN    20.000    2  1  -2137.6    40.2  1.000UN
                                                                          206 2_BPS330    330.00    2  1   -217.0    -3.4
                                                                          206 2_BPS330    330.00    2  2   -217.0    -3.4
                                                                          216 2_SS_330    330.00    2  1    574.4   -33.8
                                                                          216 2_SS_330    330.00    2  2    574.4   -33.8
                                                                          217 2_YC_330    330.00    2  1    531.4    -2.9
                                                                          217 2_YC_330    330.00    2  2    531.4    -2.9
    216 2_SS_330    330.00    2 1.0245  -19.7     0.0   1380.0     0.0 -----------------------------------------------------------------------------
                              1 338.09            0.0    140.0  -314.9    214 2_K__330    330.00    2  1   -453.5   -30.3
                                                                          215 2_MPS330    330.00    2  1   -558.4   108.6
                                                                          215 2_MPS330    330.00    2  2   -558.4   108.6
                                                                          217 2_YC_330    330.00    2  1    190.2   -12.0
    217 2_YC_330    330.00    2 1.0123  -23.9     0.0    940.0     0.0 -----------------------------------------------------------------------------
                              1 334.06            0.0     95.0     0.0    102 1_HPS330    330.00    1  1    180.9   -53.2
                                                                          102 1_HPS330    330.00    1  2    180.9   -53.2
                                                                          102 1_HPS330    330.00    1  3    194.6   -51.1
                                                                          102 1_HPS330    330.00    1  4    194.6   -51.1
                                                                          212 2_SW_330    330.00    2  1   -193.8    -8.0
                                                                          214 2_K__330    330.00    2  1   -284.8   -23.1
                                                                          215 2_MPS330    330.00    2  1   -512.0    85.0
                                                                          215 2_MPS330    330.00    2  2   -512.0    85.0
                                                                          216 2_SS_330    330.00    2  1   -188.4   -25.2
    301 3_LPSGEN    20.000    3 1.0000   -2.6  4400.0      0.0     0.0 -----------------------------------------------------------------------------
                              1 20.000          704.7R     0.0     0.0    303 3_LPS500    500.00    3  1   4400.0   704.7  0.961LK

    302 3_YPSGEN    20.000    3 1.0000  -14.3  1026.0      0.0     0.0 -----------------------------------------------------------------------------
                              1 20.000          131.4R     0.0     0.0    312 3_YPS220    220.00    3  1   1026.0   131.4  0.961LK

    303 3_LPS500    500.00    3 1.0276   -9.7     0.0      0.0     0.0 -----------------------------------------------------------------------------
                              1 513.79            0.0      0.0     0.0    301 3_LPSGEN    20.000    3  1  -4400.0  -154.0  1.000UN
                                                                          304 3_R__500    500.00    3  1    735.9    48.9
                                                                          304 3_R__500    500.00    3  2    735.9    48.9
                                                                          305 3_SM_500    500.00    3  1   1464.1    28.1
                                                                          305 3_SM_500    500.00    3  2   1464.1    28.1
    304 3_R__500    500.00    3 1.0091  -21.1     0.0      0.0     0.0 -----------------------------------------------------------------------------
                              1 504.53            0.0      0.0     0.0    303 3_LPS500    500.00    3  1   -725.5    20.0
                                                                          303 3_LPS500    500.00    3  2   -725.5    20.0
                                                                          305 3_SM_500    500.00    3  1    646.8  -314.7
                                                                          313 3_RSV220    220.00    3  1    402.1   137.4  0.961LK
                                                                          313 3_RSV220    220.00    3  2    402.1   137.4  0.961LK
    305 3_SM_500    500.00    3 1.0191  -22.6     0.0      0.0     0.0 -----------------------------------------------------------------------------
                              1 509.55            0.0      0.0     0.0    303 3_LPS500    500.00    3  1  -1441.6   120.8
                                                                          303 3_LPS500    500.00    3  2  -1441.6   120.8
                                                                          304 3_R__500    500.00    3  1   -645.3   290.9
                                                                          306 3_K__500    500.00    3  1   1075.0  -120.9
                                                                          307 3_M__500    500.00    3  1    716.3  -152.8
                                                                          307 3_M__500    500.00    3  2    716.3  -152.8
                                                                          311 3_SM_330    330.00    3  1    125.8   -50.0  1.000LK
                                                                          311 3_SM_330    330.00    3  2    125.8   -50.0  1.000LK
                                                                          311 3_SM_330    330.00    3  3    125.8   -50.0  1.000LK
                                                                          314 3_SM_220    220.00    3  1    321.9    22.0  1.000LK
                                                                          314 3_SM_220    220.00    3  2    321.9    22.0  1.000LK
    306 3_K__500    500.00    3 1.0206  -24.4     0.0   1085.0     0.0 -----------------------------------------------------------------------------
                              1 510.28            0.0    110.0     0.0    305 3_SM_500    500.00    3  1  -1072.8   121.3
                                                                          307 3_M__500    500.00    3  1    -12.2  -231.3
    307 3_M__500    500.00    3 1.0232  -24.4     0.0    580.0     0.0 -----------------------------------------------------------------------------
                              1 511.61            0.0     60.0     0.0    305 3_SM_500    500.00    3  1   -714.7   129.1
                                                                          305 3_SM_500    500.00    3  2   -714.7   129.1
                                                                          306 3_K__500    500.00    3  1     12.3   218.7
                                                                          308 3_H__500    500.00    3  1    418.6  -268.4
                                                                          308 3_H__500    500.00    3  2    418.6  -268.4
    308 3_H__500    500.00    3 1.0505  -31.8     0.0    580.0     0.0 -----------------------------------------------------------------------------
                              1 525.24            0.0     60.0     0.0    307 3_M__500    500.00    3  1   -414.6   -45.2
                                                                          307 3_M__500    500.00    3  2   -414.6   -45.2
                                                                          315 3_H__275    275.00    3  1    124.6    15.2  1.000LK
                                                                          315 3_H__275    275.00    3  2    124.6    15.2  1.000LK
    309 3_D__330    330.00    3 1.0229  -29.2     0.0    170.0     0.0 -----------------------------------------------------------------------------
                              1 337.57            0.0     20.0     0.0    102 1_HPS330    330.00    1  1     83.4    -0.6
                                                                          102 1_HPS330    330.00    1  2     83.4    -0.6
                                                                          102 1_HPS330    330.00    1  3     34.2   -30.6
                                                                          310 3_SS_330    330.00    3  1   -123.7     4.0
                                                                          310 3_SS_330    330.00    3  2   -123.7     4.0
                                                                          310 3_SS_330    330.00    3  3   -123.7     4.0
    310 3_SS_330    330.00    3 1.0121  -21.6     0.0      0.0     0.0 -----------------------------------------------------------------------------
                              1 334.00            0.0      0.0     0.0    309 3_D__330    330.00    3  1    125.8   -47.5
                                                                          309 3_D__330    330.00    3  2    125.8   -47.5
                                                                          309 3_D__330    330.00    3  3    125.8   -47.5
                                                                          311 3_SM_330    330.00    3  1   -188.7    71.2
                                                                          311 3_SM_330    330.00    3  2   -188.7    71.2
    311 3_SM_330    330.00    3 1.0377  -25.0     0.0      0.0     0.0 -----------------------------------------------------------------------------
                              1 342.45            0.0      0.0     0.0    305 3_SM_500    500.00    3  1   -125.8    56.4  1.000UN
                                                                          305 3_SM_500    500.00    3  2   -125.8    56.4  1.000UN
                                                                          305 3_SM_500    500.00    3  3   -125.8    56.4  1.000UN
                                                                          310 3_SS_330    330.00    3  1    188.7   -84.6
                                                                          310 3_SS_330    330.00    3  2    188.7   -84.6
    312 3_YPS220    220.00    3 1.0318  -20.5     0.0    105.0     0.0 -----------------------------------------------------------------------------
                              1 227.00            0.0     15.0     0.0    302 3_YPSGEN    20.000    3  1  -1026.0   -20.0  1.000UN
                                                                          313 3_RSV220    220.00    3  1    307.0     1.7
                                                                          313 3_RSV220    220.00    3  2    307.0     1.7
                                                                          313 3_RSV220    220.00    3  3    307.0     1.7
    313 3_RSV220    220.00    3 1.0150  -28.0     0.0   2130.0     0.0 -----------------------------------------------------------------------------
                              1 223.30           54.9R   220.0     0.0    304 3_R__500    500.00    3  1   -402.1   -84.9  1.000UN
                                                                          304 3_R__500    500.00    3  2   -402.1   -84.9  1.000UN
                                                                          312 3_YPS220    220.00    3  1   -301.7     6.9
                                                                          312 3_YPS220    220.00    3  2   -301.7     6.9
                                                                          312 3_YPS220    220.00    3  3   -301.7     6.9
                                                                          314 3_SM_220    220.00    3  1   -210.4    -8.0
                                                                          314 3_SM_220    220.00    3  2   -210.4    -8.0
    314 3_SM_220    220.00    3 1.0168  -26.9     0.0    222.0     0.0 -----------------------------------------------------------------------------
                              1 223.69            0.0     25.0     0.0    305 3_SM_500    500.00    3  1   -321.9     2.1  1.000UN
                                                                          305 3_SM_500    500.00    3  2   -321.9     2.1  1.000UN
                                                                          313 3_RSV220    220.00    3  1    210.9   -14.6
                                                                          313 3_RSV220    220.00    3  2    210.9   -14.6
    315 3_H__275    275.00    3 1.0471  -33.5     0.0      0.0     0.0 -----------------------------------------------------------------------------
                              1 287.95            0.0      0.0     0.0    308 3_H__500    500.00    3  1   -124.6   -11.3  1.000UN
                                                                          308 3_H__500    500.00    3  2   -124.6   -11.3  1.000UN
                                                                          509 5_SSV275    275.00    5  1    124.6    11.3
                                                                          509 5_SSV275    275.00    5  2    124.6    11.3
    401 4_TPSGEN    20.000    4 1.0000   20.8  1384.0      0.0     0.0 -----------------------------------------------------------------------------
                              1 20.000          339.6R     0.0     0.0    410 4_TPS275    275.00    4  1   1384.0   339.6  0.952LK

    402 4_CPSGEN    20.000    4 1.0000   49.8   840.0      0.0     0.0 -----------------------------------------------------------------------------
                              1 20.000          136.2R     0.0     0.0    408 4_CPS275    275.00    4  1    840.0   136.2  0.952LK

    403 4_SPSGEN    20.000    4 1.0000   53.5  1360.0      0.0     0.0 -----------------------------------------------------------------------------
                              1 20.000          185.3R     0.0     0.0    407 4_SPS275    275.00    4  1   1360.0   185.3  0.952LK

    404 4_GPSGEN    20.000    4 1.0000   47.1  1360.0      0.0     0.0 -----------------------------------------------------------------------------
                              1 20.000          252.0R     0.0     0.0    405 4_GPS275    275.00    4  1   1360.0   252.0  0.952LK

    405 4_GPS275    275.00    4 1.0340   39.7     0.0    990.0     0.0 -----------------------------------------------------------------------------
                              1 284.34            0.0    100.0     0.0    404 4_GPSGEN    20.000    4  1  -1360.0   -75.0  1.000UN
                                                                          406 4_N__275    275.00    4  1   -210.7     2.9
                                                                          406 4_N__275    275.00    4  2   -210.7     2.9
                                                                          408 4_CPS275    275.00    4  1    -94.2    -3.8
                                                                          409 4_W__275    275.00    4  1    295.2    -9.0
                                                                          409 4_W__275    275.00    4  2    295.2    -9.0
                                                                          409 4_W__275    275.00    4  3    295.2    -9.0
    406 4_N__275    275.00    4 1.0358   45.1     0.0    740.0     0.0 -----------------------------------------------------------------------------
                              1 284.85            0.0     75.0     0.0    405 4_GPS275    275.00    4  1    212.3   -23.8
                                                                          405 4_GPS275    275.00    4  2    212.3   -23.8
                                                                          407 4_SPS275    275.00    4  1   -582.3   -13.7
                                                                          407 4_SPS275    275.00    4  2   -582.3   -13.7
    407 4_SPS275    275.00    4 1.0408   47.5     0.0      0.0     0.0 -----------------------------------------------------------------------------
                              1 286.23            0.0      0.0     0.0    403 4_SPSGEN    20.000    4  1  -1360.0   -40.9  1.000UN
                                                                          406 4_N__275    275.00    4  1    584.2    31.1
                                                                          406 4_N__275    275.00    4  2    584.2    31.1
                                                                          408 4_CPS275    275.00    4  1    191.6   -21.2
    408 4_CPS275    275.00    4 1.0369   42.3     0.0    150.0     0.0 -----------------------------------------------------------------------------
                              1 285.14            0.0     15.0     0.0    402 4_CPSGEN    20.000    4  1   -840.0   -24.6  1.000UN
                                                                          405 4_GPS275    275.00    4  1     94.7   -12.3
                                                                          407 4_SPS275    275.00    4  1   -190.2    -5.8
                                                                          410 4_TPS275    275.00    4  1    261.8     9.2
                                                                          410 4_TPS275    275.00    4  2    261.8     9.2
                                                                          410 4_TPS275    275.00    4  3    261.8     9.2
    409 4_W__275    275.00    4 1.0036   19.8     0.0    260.0     0.0 -----------------------------------------------------------------------------
                              1 276.00            0.0     30.0   -60.4    405 4_GPS275    275.00    4  1   -280.3    27.7
                                                                          405 4_GPS275    275.00    4  2   -280.3    27.7
                                                                          405 4_GPS275    275.00    4  3   -280.3    27.7
                                                                          411 4_SP_275    275.00    4  1    290.5   -26.3
                                                                          411 4_SP_275    275.00    4  2    290.5   -26.3
    410 4_TPS275    275.00    4 1.0287   14.6     0.0    530.0     0.0 -----------------------------------------------------------------------------
                              1 282.89            0.0     55.0     0.0    401 4_TPSGEN    20.000    4  1  -1384.0  -183.9  1.000UN
                                                                          408 4_CPS275    275.00    4  1   -251.0    45.1
                                                                          408 4_CPS275    275.00    4  2   -251.0    45.1
                                                                          408 4_CPS275    275.00    4  3   -251.0    45.1
                                                                          411 4_SP_275    275.00    4  1    230.1    32.5
                                                                          412 4_BW_275    275.00    4  1    262.6    29.0
                                                                          412 4_BW_275    275.00    4  2    262.6    29.0
                                                                          412 4_BW_275    275.00    4  3    262.6    29.0
                                                                          412 4_BW_275    275.00    4  4    262.6    29.0
                                                                          413 4_BR_275    275.00    4  1    163.2   -77.4
                                                                          413 4_BR_275    275.00    4  2    163.2   -77.4
    411 4_SP_275    275.00    4 0.9974    7.9     0.0    575.0     0.0 -----------------------------------------------------------------------------
                              1 274.29            0.0     60.0   -29.8    409 4_W__275    275.00    4  1   -281.9    39.6
                                                                          409 4_W__275    275.00    4  2   -281.9    39.6
                                                                          410 4_TPS275    275.00    4  1   -227.8   -48.2
                                                                          412 4_BW_275    275.00    4  1    108.3   -30.6
                                                                          412 4_BW_275    275.00    4  2    108.3   -30.6
    412 4_BW_275    275.00    4 1.0000    6.9     0.0   1255.0     0.0 -----------------------------------------------------------------------------
                              1 275.00           22.8R   130.0     0.0    410 4_TPS275    275.00    4  1   -259.7   -37.0
                                                                          410 4_TPS275    275.00    4  2   -259.7   -37.0
                                                                          410 4_TPS275    275.00    4  3   -259.7   -37.0
                                                                          410 4_TPS275    275.00    4  4   -259.7   -37.0
                                                                          411 4_SP_275    275.00    4  1   -108.1    20.3
                                                                          411 4_SP_275    275.00    4  2   -108.1    20.3
    413 4_BR_275    275.00    4 1.0525   10.2     0.0      0.0     0.0 -----------------------------------------------------------------------------
                              1 289.43            0.0      0.0     0.0    410 4_TPS275    275.00    4  1   -162.1    48.0
                                                                          410 4_TPS275    275.00    4  2   -162.1    48.0
                                                                          414 4_BR_330    330.00    4  1    108.1   -32.0  1.015LK
                                                                          414 4_BR_330    330.00    4  2    108.1   -32.0  1.015LK
                                                                          414 4_BR_330    330.00    4  3    108.1   -32.0  1.015LK
    414 4_BR_330    330.00    4 1.0394    9.8     0.0      0.0     0.0 -----------------------------------------------------------------------------
                              1 343.01            0.0      0.0    32.4    413 4_BR_275    275.00    4  1   -108.1    33.0  1.000UN
                                                                          413 4_BR_275    275.00    4  2   -108.1    33.0  1.000UN
                                                                          413 4_BR_275    275.00    4  3   -108.1    33.0  1.000UN
                                                                          415 4_BU_330    330.00    4  1    162.1   -65.7
                                                                          415 4_BU_330    330.00    4  2    162.1   -65.7
    415 4_BU_330    330.00    4 1.0478    7.6     0.0      0.0     0.0 -----------------------------------------------------------------------------
                              1 345.77            0.0      0.0    65.9    414 4_BR_330    330.00    4  1   -161.6    29.7
                                                                          414 4_BR_330    330.00    4  2   -161.6    29.7
                                                                          416 4_DU_330    330.00    4  1    161.6   -62.7
                                                                          416 4_DU_330    330.00    4  2    161.6   -62.7
    416 4_DU_330    330.00    4 1.0544    3.7     0.0      0.0     0.0 -----------------------------------------------------------------------------
                              1 347.97            0.0      0.0    66.7    205 2_ASV330    330.00    2  1    160.7   -26.5
                                                                          205 2_ASV330    330.00    2  2    160.7   -26.5
                                                                          415 4_BU_330    330.00    4  1   -160.7    -6.8
                                                                          415 4_BU_330    330.00    4  2   -160.7    -6.8
    501 5_NPSGEN    20.000    5 1.0000  -33.4   560.0      0.0     0.0 -----------------------------------------------------------------------------
                              1 20.000          -70.4R     0.0     0.0    504 5_D__275    275.00    5  1    560.0   -70.4  0.985LK

    502 5_TPSGEN    15.000    5 1.0000  -33.0   760.0      0.0     0.0 -----------------------------------------------------------------------------
                              1 15.000            0.5R     0.0     0.0    505 5_TPS275    275.00    5  1    760.0     0.5  0.995LK

    503 5_PPSGEN    15.000    5 1.0000  -37.2   174.0      0.0     0.0 -----------------------------------------------------------------------------
                              1 15.000            7.1R     0.0     0.0    506 5_PPS275    275.00    5  1    174.0     7.1  0.985LK

    504 5_D__275    275.00    5 1.0422  -41.2     0.0    225.0     0.0 -----------------------------------------------------------------------------
                              1 286.62            0.0     25.0     0.0    501 5_NPSGEN    20.000    5  1   -560.0   149.2  1.000UN
                                                                          507 5_PSV275    275.00    5  1     19.6   -14.3
                                                                          507 5_PSV275    275.00    5  2     19.6   -14.3
                                                                          508 5_CG_275    275.00    5  1    147.9   -72.8
                                                                          508 5_CG_275    275.00    5  2    147.9   -72.8
    505 5_TPS275    275.00    5 1.0122  -39.9     0.0      0.0     0.0 -----------------------------------------------------------------------------
                              1 278.35            0.0      0.0     0.0    502 5_TPSGEN    15.000    5  1   -760.0    91.0  1.000UN
                                                                          507 5_PSV275    275.00    5  1    279.1   -37.9
                                                                          507 5_PSV275    275.00    5  2    279.1   -37.9
                                                                          508 5_CG_275    275.00    5  1    201.8   -15.2
    506 5_PPS275    275.00    5 1.0152  -42.0     0.0      0.0     0.0 -----------------------------------------------------------------------------
                              1 279.17            0.0      0.0     0.0    503 5_PPSGEN    15.000    5  1   -174.0     7.7  1.000UN
                                                                          507 5_PSV275    275.00    5  1     54.1    -5.4
                                                                          507 5_PSV275    275.00    5  2     54.1    -5.4
                                                                          508 5_CG_275    275.00    5  1     65.7     3.0
    507 5_PSV275    275.00    5 1.0150  -42.6     0.0    750.0     0.0 -----------------------------------------------------------------------------
                              1 279.12           13.8R    75.0     0.0    504 5_D__275    275.00    5  1    -19.5   -44.1
                                                                          504 5_D__275    275.00    5  2    -19.5   -44.1
                                                                          505 5_TPS275    275.00    5  1   -277.9    47.9
                                                                          505 5_TPS275    275.00    5  2   -277.9    47.9
                                                                          506 5_PPS275    275.00    5  1    -54.1     2.7
                                                                          506 5_PPS275    275.00    5  2    -54.1     2.7
                                                                          508 5_CG_275    275.00    5  1     48.7    14.2
                                                                          509 5_SSV275    275.00    5  1    -16.0   -14.8
                                                                          509 5_SSV275    275.00    5  2    -16.0   -14.8
                                                                          509 5_SSV275    275.00    5  3    -16.0   -14.8
                                                                          509 5_SSV275    275.00    5  4    -16.0   -14.8
                                                                          509 5_SSV275    275.00    5  5    -16.0   -14.8
                                                                          509 5_SSV275    275.00    5  6    -16.0   -14.8
    508 5_CG_275    275.00    5 1.0106  -43.1     0.0    600.0     0.0 -----------------------------------------------------------------------------
                              1 277.90            0.0     60.0     0.0    504 5_D__275    275.00    5  1   -142.5   -14.9
                                                                          504 5_D__275    275.00    5  2   -142.5   -14.9
                                                                          505 5_TPS275    275.00    5  1   -200.8     8.9
                                                                          506 5_PPS275    275.00    5  1    -65.6   -16.2
                                                                          507 5_PSV275    275.00    5  1    -48.6   -22.9
    509 5_SSV275    275.00    5 1.0300  -36.7     0.0    150.0     0.0 -----------------------------------------------------------------------------
                              1 283.25         -123.8R    15.0     0.0    315 3_H__275    275.00    3  1   -123.6   -24.5
                                                                          315 3_H__275    275.00    3  2   -123.6   -24.5
                                                                          507 5_PSV275    275.00    5  1     16.2   -15.0
                                                                          507 5_PSV275    275.00    5  2     16.2   -15.0
                                                                          507 5_PSV275    275.00    5  3     16.2   -15.0
                                                                          507 5_PSV275    275.00    5  4     16.2   -15.0
                                                                          507 5_PSV275    275.00    5  5     16.2   -15.0
                                                                          507 5_PSV275    275.00    5  6     16.2   -15.0
